<?xml version="1.0" encoding="UTF-8"?>

<!-- generated on 2025-12-26 03:33:06.757502 by Eclipse SUMO randomTrips.py v1_25_0+0000-ac6c5a6752d
<configuration>
    <net-file value="network/grid.net.xml"/>
    <output-trip-file value="routes/grid.rou.xml"/>
    <prefix value="veh"/>
    <end value="600.0"/>
    <period value="1.0"/>
</configuration>
-->

<!-- generated on 2025-12-26T03:33:06.680095+05:30 by Eclipse SUMO duarouter 1.25.0
<duarouterConfiguration xmlns:xsi="http://www.w3.org/2001/XMLSchema-instance" xsi:noNamespaceSchemaLocation="http://sumo.dlr.de/xsd/duarouterConfiguration.xsd">

    <input>
        <net-file value="network/grid.net.xml"/>
        <route-files value="routes/grid.rou.xml"/>
    </input>

    <output>
        <output-file value="routes.rou.xml"/>
        <alternatives-output value="NUL"/>
    </output>

    <time>
        <begin value="0.0"/>
        <end value="600.0"/>
    </time>

    <report>
        <no-warnings value="true"/>
        <ignore-errors value="true"/>
        <no-step-log value="true"/>
    </report>

</duarouterConfiguration>
-->

<routes xmlns:xsi="http://www.w3.org/2001/XMLSchema-instance" xsi:noNamespaceSchemaLocation="http://sumo.dlr.de/xsd/routes_file.xsd">
    <vehicle id="veh0" depart="0.00">
        <route edges="B2B1 B1B0 B0A0 A0A1"/>
    </vehicle>
    <vehicle id="veh1" depart="1.00">
        <route edges="A2B2 B2A2 A2A1"/>
    </vehicle>
    <vehicle id="veh2" depart="2.00">
        <route edges="C0B0 B0B1 B1B2 B2C2"/>
    </vehicle>
    <vehicle id="veh3" depart="3.00">
        <route edges="C1C2 C2B2 B2A2 A2A1 A1A0"/>
    </vehicle>
    <vehicle id="veh4" depart="4.00">
        <route edges="B1A1 A1B1 B1B0 B0A0 A0A1"/>
    </vehicle>
    <vehicle id="veh5" depart="5.00">
        <route edges="A2A1 A1B1 B1B2"/>
    </vehicle>
    <vehicle id="veh6" depart="6.00">
        <route edges="A0A1 A1B1"/>
    </vehicle>
    <vehicle id="veh7" depart="7.00">
        <route edges="B2B1 B1C1"/>
    </vehicle>
    <vehicle id="veh8" depart="8.00">
        <route edges="A2A1 A1B1 B1B2 B2A2"/>
    </vehicle>
    <vehicle id="veh9" depart="9.00">
        <route edges="C1B1 B1B0 B0A0 A0A1"/>
    </vehicle>
    <vehicle id="veh10" depart="10.00">
        <route edges="C1B1 B1B2 B2C2"/>
    </vehicle>
    <vehicle id="veh11" depart="11.00">
        <route edges="B0B1 B1A1 A1A2"/>
    </vehicle>
    <vehicle id="veh12" depart="12.00">
        <route edges="C2B2 B2B1 B1B0 B0B1"/>
    </vehicle>
    <vehicle id="veh13" depart="13.00">
        <route edges="A1A0"/>
    </vehicle>
    <vehicle id="veh14" depart="14.00">
        <route edges="C1C0 C0B0 B0B1 B1B2 B2A2"/>
    </vehicle>
    <vehicle id="veh15" depart="15.00">
        <route edges="C1B1 B1C1 C1C0 C0B0"/>
    </vehicle>
    <vehicle id="veh16" depart="16.00">
        <route edges="B1B2 B2C2 C2C1"/>
    </vehicle>
    <vehicle id="veh17" depart="17.00">
        <route edges="B0C0 C0C1 C1B1 B1C1"/>
    </vehicle>
    <vehicle id="veh18" depart="18.00">
        <route edges="C1B1 B1B2 B2A2"/>
    </vehicle>
    <vehicle id="veh19" depart="19.00">
        <route edges="C1C0 C0B0 B0B1 B1C1"/>
    </vehicle>
    <vehicle id="veh20" depart="20.00">
        <route edges="B2C2 C2C1 C1B1 B1A1 A1A0 A0B0"/>
    </vehicle>
    <vehicle id="veh21" depart="21.00">
        <route edges="A2A1 A1A2 A2B2"/>
    </vehicle>
    <vehicle id="veh22" depart="22.00">
        <route edges="A0B0 B0B1 B1B2 B2A2 A2A1"/>
    </vehicle>
    <vehicle id="veh23" depart="23.00">
        <route edges="A1A0 A0B0 B0B1 B1A1 A1A2 A2B2"/>
    </vehicle>
    <vehicle id="veh24" depart="24.00">
        <route edges="B2B1 B1B0 B0B1"/>
    </vehicle>
    <vehicle id="veh25" depart="25.00">
        <route edges="B0B1 B1B2 B2A2 A2A1"/>
    </vehicle>
    <vehicle id="veh26" depart="26.00">
        <route edges="A2B2 B2B1 B1C1 C1C2 C2B2"/>
    </vehicle>
    <vehicle id="veh27" depart="27.00">
        <route edges="B2B1 B1B2 B2A2"/>
    </vehicle>
    <vehicle id="veh28" depart="28.00">
        <route edges="A1B1 B1C1 C1C0 C0B0"/>
    </vehicle>
    <vehicle id="veh29" depart="29.00">
        <route edges="A1A2 A2B2 B2B1 B1B0 B0C0"/>
    </vehicle>
    <vehicle id="veh30" depart="30.00">
        <route edges="C2C1 C1B1 B1B2 B2B1"/>
    </vehicle>
    <vehicle id="veh31" depart="31.00">
        <route edges="B1C1 C1B1 B1B2 B2C2"/>
    </vehicle>
    <vehicle id="veh32" depart="32.00">
        <route edges="C1C0 C0B0 B0C0 C0C1"/>
    </vehicle>
    <vehicle id="veh33" depart="33.00">
        <route edges="A2A1 A1B1 B1B0 B0A0 A0A1"/>
    </vehicle>
    <vehicle id="veh34" depart="34.00">
        <route edges="B0A0 A0A1 A1A2 A2B2"/>
    </vehicle>
    <vehicle id="veh35" depart="35.00">
        <route edges="A2A1 A1B1 B1C1 C1C2 C2B2"/>
    </vehicle>
    <vehicle id="veh36" depart="36.00">
        <route edges="C1C2 C2B2 B2B1 B1B0 B0A0"/>
    </vehicle>
    <vehicle id="veh37" depart="37.00">
        <route edges="B2B1 B1B0 B0C0"/>
    </vehicle>
    <vehicle id="veh38" depart="38.00">
        <route edges="C1C2 C2B2 B2B1 B1B0"/>
    </vehicle>
    <vehicle id="veh39" depart="39.00">
        <route edges="A2B2 B2A2 A2A1"/>
    </vehicle>
    <vehicle id="veh40" depart="40.00">
        <route edges="B1C1 C1B1 B1A1 A1A2 A2B2"/>
    </vehicle>
    <vehicle id="veh41" depart="41.00">
        <route edges="B2A2 A2A1 A1B1 B1C1 C1C2"/>
    </vehicle>
    <vehicle id="veh42" depart="42.00">
        <route edges="B0C0 C0C1 C1C2 C2B2 B2A2 A2A1"/>
    </vehicle>
    <vehicle id="veh43" depart="43.00">
        <route edges="C2C1 C1B1 B1B2"/>
    </vehicle>
    <vehicle id="veh44" depart="44.00">
        <route edges="A1A0 A0B0"/>
    </vehicle>
    <vehicle id="veh45" depart="45.00">
        <route edges="A1A0 A0B0 B0B1 B1B2 B2B1"/>
    </vehicle>
    <vehicle id="veh46" depart="46.00">
        <route edges="C1B1 B1A1"/>
    </vehicle>
    <vehicle id="veh47" depart="47.00">
        <route edges="A0B0 B0C0"/>
    </vehicle>
    <vehicle id="veh48" depart="48.00">
        <route edges="C2C1 C1B1 B1B2"/>
    </vehicle>
    <vehicle id="veh49" depart="49.00">
        <route edges="C2C1 C1C0"/>
    </vehicle>
    <vehicle id="veh50" depart="50.00">
        <route edges="A0A1 A1B1 B1C1 C1C0 C0B0"/>
    </vehicle>
    <vehicle id="veh51" depart="51.00">
        <route edges="B2C2 C2C1 C1B1 B1B2"/>
    </vehicle>
    <vehicle id="veh52" depart="52.00">
        <route edges="A2B2 B2B1"/>
    </vehicle>
    <vehicle id="veh53" depart="53.00">
        <route edges="A1A0 A0B0 B0B1 B1A1"/>
    </vehicle>
    <vehicle id="veh54" depart="54.00">
        <route edges="B1A1 A1B1 B1C1 C1C2 C2B2"/>
    </vehicle>
    <vehicle id="veh55" depart="55.00">
        <route edges="C1C2 C2B2 B2B1 B1A1 A1A2 A2B2"/>
    </vehicle>
    <vehicle id="veh56" depart="56.00">
        <route edges="B1B2 B2A2 A2A1 A1B1"/>
    </vehicle>
    <vehicle id="veh57" depart="57.00">
        <route edges="C1C2 C2B2 B2B1 B1C1 C1C0"/>
    </vehicle>
    <vehicle id="veh58" depart="58.00">
        <route edges="B0A0 A0A1 A1A2 A2B2 B2B1"/>
    </vehicle>
    <vehicle id="veh59" depart="59.00">
        <route edges="B2A2 A2A1 A1A2"/>
    </vehicle>
    <vehicle id="veh60" depart="60.00">
        <route edges="C0C1 C1B1 B1B2"/>
    </vehicle>
    <vehicle id="veh61" depart="61.00">
        <route edges="C0C1 C1B1 B1B2"/>
    </vehicle>
    <vehicle id="veh62" depart="62.00">
        <route edges="A0A1 A1B1 B1B0 B0A0"/>
    </vehicle>
    <vehicle id="veh63" depart="63.00">
        <route edges="A0A1 A1B1 B1C1 C1C2 C2B2"/>
    </vehicle>
    <vehicle id="veh64" depart="64.00">
        <route edges="C1C2 C2B2 B2C2 C2C1 C1B1"/>
    </vehicle>
    <vehicle id="veh65" depart="65.00">
        <route edges="B0A0 A0A1 A1A0 A0B0"/>
    </vehicle>
    <vehicle id="veh66" depart="66.00">
        <route edges="C1C2 C2B2"/>
    </vehicle>
    <vehicle id="veh67" depart="67.00">
        <route edges="A1A0 A0B0 B0B1 B1B0"/>
    </vehicle>
    <vehicle id="veh68" depart="68.00">
        <route edges="A0B0 B0C0 C0C1"/>
    </vehicle>
    <vehicle id="veh69" depart="69.00">
        <route edges="C0C1 C1B1 B1A1 A1A2"/>
    </vehicle>
    <vehicle id="veh70" depart="70.00">
        <route edges="B1B0 B0B1 B1C1"/>
    </vehicle>
    <vehicle id="veh71" depart="71.00">
        <route edges="A2B2 B2C2 C2C1 C1C0"/>
    </vehicle>
    <vehicle id="veh72" depart="72.00">
        <route edges="B1A1 A1A2 A2B2 B2A2 A2A1"/>
    </vehicle>
    <vehicle id="veh73" depart="73.00">
        <route edges="B1B2 B2C2 C2C1 C1C0 C0B0"/>
    </vehicle>
    <vehicle id="veh74" depart="74.00">
        <route edges="A1B1 B1B0 B0A0"/>
    </vehicle>
    <vehicle id="veh75" depart="75.00">
        <route edges="C2C1 C1B1 B1B2 B2B1"/>
    </vehicle>
    <vehicle id="veh76" depart="76.00">
        <route edges="B1A1 A1B1 B1B2"/>
    </vehicle>
    <vehicle id="veh77" depart="77.00">
        <route edges="A1A0 A0B0 B0B1 B1B2 B2A2 A2A1"/>
    </vehicle>
    <vehicle id="veh78" depart="78.00">
        <route edges="B0B1 B1B2 B2A2"/>
    </vehicle>
    <vehicle id="veh79" depart="79.00">
        <route edges="A2A1"/>
    </vehicle>
    <vehicle id="veh80" depart="80.00">
        <route edges="A0B0 B0B1 B1B2 B2B1"/>
    </vehicle>
    <vehicle id="veh81" depart="81.00">
        <route edges="A2A1 A1B1 B1C1 C1C2"/>
    </vehicle>
    <vehicle id="veh82" depart="82.00">
        <route edges="C1C0 C0B0 B0B1 B1A1 A1A0 A0B0"/>
    </vehicle>
    <vehicle id="veh83" depart="83.00">
        <route edges="A2A1 A1B1 B1B2 B2C2"/>
    </vehicle>
    <vehicle id="veh84" depart="84.00">
        <route edges="A2A1 A1A2"/>
    </vehicle>
    <vehicle id="veh85" depart="85.00">
        <route edges="C2B2 B2B1 B1C1"/>
    </vehicle>
    <vehicle id="veh86" depart="86.00">
        <route edges="B1B0 B0C0 C0C1"/>
    </vehicle>
    <vehicle id="veh87" depart="87.00">
        <route edges="C1B1 B1A1 A1B1"/>
    </vehicle>
    <vehicle id="veh88" depart="88.00">
        <route edges="A1A0 A0B0 B0B1 B1A1"/>
    </vehicle>
    <vehicle id="veh89" depart="89.00">
        <route edges="B1A1 A1B1 B1B0"/>
    </vehicle>
    <vehicle id="veh90" depart="90.00">
        <route edges="C0B0 B0B1 B1B2 B2C2"/>
    </vehicle>
    <vehicle id="veh91" depart="91.00">
        <route edges="C2C1 C1B1 B1A1 A1A0"/>
    </vehicle>
    <vehicle id="veh92" depart="92.00">
        <route edges="B0C0 C0C1 C1C0 C0B0 B0B1"/>
    </vehicle>
    <vehicle id="veh93" depart="93.00">
        <route edges="C1C0 C0B0 B0B1 B1B2 B2A2 A2A1"/>
    </vehicle>
    <vehicle id="veh94" depart="94.00">
        <route edges="A1B1 B1A1"/>
    </vehicle>
    <vehicle id="veh95" depart="95.00">
        <route edges="B1A1 A1A2 A2B2"/>
    </vehicle>
    <vehicle id="veh96" depart="96.00">
        <route edges="A2A1 A1B1 B1C1 C1C2 C2B2"/>
    </vehicle>
    <vehicle id="veh97" depart="97.00">
        <route edges="B1A1 A1B1 B1C1 C1C0"/>
    </vehicle>
    <vehicle id="veh98" depart="98.00">
        <route edges="B1C1 C1B1 B1A1 A1A0 A0B0"/>
    </vehicle>
    <vehicle id="veh99" depart="99.00">
        <route edges="C2C1 C1C0"/>
    </vehicle>
    <vehicle id="veh100" depart="100.00">
        <route edges="C2C1 C1C2 C2B2"/>
    </vehicle>
    <vehicle id="veh101" depart="101.00">
        <route edges="C1C0 C0B0 B0A0 A0A1 A1A2"/>
    </vehicle>
    <vehicle id="veh102" depart="102.00">
        <route edges="B1B0 B0B1 B1B2 B2A2 A2A1"/>
    </vehicle>
    <vehicle id="veh103" depart="103.00">
        <route edges="B0C0 C0C1 C1B1 B1A1 A1A0 A0B0"/>
    </vehicle>
    <vehicle id="veh104" depart="104.00">
        <route edges="B0C0 C0C1 C1B1 B1B2 B2C2 C2C1"/>
    </vehicle>
    <vehicle id="veh105" depart="105.00">
        <route edges="A2B2 B2B1 B1B0 B0C0 C0C1"/>
    </vehicle>
    <vehicle id="veh106" depart="106.00">
        <route edges="B1A1"/>
    </vehicle>
    <vehicle id="veh107" depart="107.00">
        <route edges="C2B2 B2C2 C2C1"/>
    </vehicle>
    <vehicle id="veh108" depart="108.00">
        <route edges="B1C1 C1C0 C0B0"/>
    </vehicle>
    <vehicle id="veh109" depart="109.00">
        <route edges="A1A2 A2B2 B2B1 B1B0 B0A0"/>
    </vehicle>
    <vehicle id="veh110" depart="110.00">
        <route edges="C2C1 C1B1 B1C1"/>
    </vehicle>
    <vehicle id="veh111" depart="111.00">
        <route edges="B1C1 C1C0 C0B0"/>
    </vehicle>
    <vehicle id="veh112" depart="112.00">
        <route edges="A0B0 B0B1 B1B2 B2A2"/>
    </vehicle>
    <vehicle id="veh113" depart="113.00">
        <route edges="B1B2 B2C2 C2C1 C1C0"/>
    </vehicle>
    <vehicle id="veh114" depart="114.00">
        <route edges="A1A2 A2B2 B2C2 C2C1"/>
    </vehicle>
    <vehicle id="veh115" depart="115.00">
        <route edges="A0B0 B0A0 A0A1 A1B1"/>
    </vehicle>
    <vehicle id="veh116" depart="116.00">
        <route edges="B2A2 A2A1 A1B1 B1B2 B2C2"/>
    </vehicle>
    <vehicle id="veh117" depart="117.00">
        <route edges="A2A1 A1A0"/>
    </vehicle>
    <vehicle id="veh118" depart="118.00">
        <route edges="C1C2 C2B2 B2A2 A2A1"/>
    </vehicle>
    <vehicle id="veh119" depart="119.00">
        <route edges="B2A2"/>
    </vehicle>
    <vehicle id="veh120" depart="120.00">
        <route edges="B1A1 A1A2 A2B2 B2A2"/>
    </vehicle>
    <vehicle id="veh121" depart="121.00">
        <route edges="B1B2 B2C2 C2C1 C1C2 C2B2"/>
    </vehicle>
    <vehicle id="veh122" depart="122.00">
        <route edges="A1B1 B1C1 C1C0 C0B0"/>
    </vehicle>
    <vehicle id="veh123" depart="123.00">
        <route edges="A2A1 A1A0 A0B0 B0C0"/>
    </vehicle>
    <vehicle id="veh124" depart="124.00">
        <route edges="B2C2 C2C1 C1C0 C0B0 B0A0"/>
    </vehicle>
    <vehicle id="veh125" depart="125.00">
        <route edges="B0A0 A0A1 A1B1 B1B0 B0C0 C0C1"/>
    </vehicle>
    <vehicle id="veh126" depart="126.00">
        <route edges="A0B0 B0B1 B1A1"/>
    </vehicle>
    <vehicle id="veh127" depart="127.00">
        <route edges="C2C1"/>
    </vehicle>
    <vehicle id="veh128" depart="128.00">
        <route edges="A0B0 B0B1 B1B2 B2A2 A2A1"/>
    </vehicle>
    <vehicle id="veh129" depart="129.00">
        <route edges="A2B2 B2B1 B1C1 C1C2 C2B2"/>
    </vehicle>
    <vehicle id="veh130" depart="130.00">
        <route edges="C1C2"/>
    </vehicle>
    <vehicle id="veh131" depart="131.00">
        <route edges="B0B1 B1A1 A1A2"/>
    </vehicle>
    <vehicle id="veh132" depart="132.00">
        <route edges="C1C0 C0B0 B0B1 B1B2 B2C2"/>
    </vehicle>
    <vehicle id="veh133" depart="133.00">
        <route edges="B2A2 A2A1 A1B1 B1B2 B2C2 C2C1"/>
    </vehicle>
    <vehicle id="veh134" depart="134.00">
        <route edges="B2B1 B1B0 B0A0 A0A1"/>
    </vehicle>
    <vehicle id="veh135" depart="135.00">
        <route edges="C1B1 B1B0 B0A0"/>
    </vehicle>
    <vehicle id="veh136" depart="136.00">
        <route edges="B2B1 B1C1 C1C2 C2B2"/>
    </vehicle>
    <vehicle id="veh137" depart="137.00">
        <route edges="A1A2 A2B2 B2B1 B1A1 A1A0"/>
    </vehicle>
    <vehicle id="veh138" depart="138.00">
        <route edges="A1A0 A0B0 B0B1 B1C1"/>
    </vehicle>
    <vehicle id="veh139" depart="139.00">
        <route edges="A2B2 B2A2"/>
    </vehicle>
    <vehicle id="veh140" depart="140.00">
        <route edges="C0B0 B0A0 A0A1 A1B1"/>
    </vehicle>
    <vehicle id="veh141" depart="141.00">
        <route edges="B2B1 B1A1 A1A2 A2B2"/>
    </vehicle>
    <vehicle id="veh142" depart="142.00">
        <route edges="B1B0 B0C0 C0C1 C1C2"/>
    </vehicle>
    <vehicle id="veh143" depart="143.00">
        <route edges="C1C0 C0B0 B0B1 B1A1 A1A0"/>
    </vehicle>
    <vehicle id="veh144" depart="144.00">
        <route edges="B1A1 A1A2 A2B2"/>
    </vehicle>
    <vehicle id="veh145" depart="145.00">
        <route edges="A0A1 A1B1 B1B0 B0C0 C0C1"/>
    </vehicle>
    <vehicle id="veh146" depart="146.00">
        <route edges="B2B1 B1A1 A1A2 A2B2"/>
    </vehicle>
    <vehicle id="veh147" depart="147.00">
        <route edges="C0B0 B0B1 B1C1"/>
    </vehicle>
    <vehicle id="veh148" depart="148.00">
        <route edges="B1A1 A1B1 B1B0 B0A0 A0A1"/>
    </vehicle>
    <vehicle id="veh149" depart="149.00">
        <route edges="A0B0 B0C0 C0C1 C1C2"/>
    </vehicle>
    <vehicle id="veh150" depart="150.00">
        <route edges="C1C2 C2B2 B2B1 B1C1"/>
    </vehicle>
    <vehicle id="veh151" depart="151.00">
        <route edges="C1C0 C0B0 B0B1 B1C1"/>
    </vehicle>
    <vehicle id="veh152" depart="152.00">
        <route edges="A1A2"/>
    </vehicle>
    <vehicle id="veh153" depart="153.00">
        <route edges="B0A0 A0A1 A1B1 B1C1 C1C2"/>
    </vehicle>
    <vehicle id="veh154" depart="154.00">
        <route edges="C1B1 B1C1 C1C0"/>
    </vehicle>
    <vehicle id="veh155" depart="155.00">
        <route edges="C1C2 C2B2 B2A2 A2A1"/>
    </vehicle>
    <vehicle id="veh156" depart="156.00">
        <route edges="A2A1 A1A0"/>
    </vehicle>
    <vehicle id="veh157" depart="157.00">
        <route edges="C0C1 C1C2"/>
    </vehicle>
    <vehicle id="veh158" depart="158.00">
        <route edges="B0C0 C0C1 C1C2 C2B2 B2A2"/>
    </vehicle>
    <vehicle id="veh159" depart="159.00">
        <route edges="A1A2 A2B2 B2B1 B1C1 C1C2 C2B2"/>
    </vehicle>
    <vehicle id="veh160" depart="160.00">
        <route edges="C1C0 C0B0 B0B1 B1B2 B2C2 C2C1"/>
    </vehicle>
    <vehicle id="veh161" depart="161.00">
        <route edges="C1B1 B1C1 C1C2"/>
    </vehicle>
    <vehicle id="veh162" depart="162.00">
        <route edges="A0A1 A1B1 B1C1 C1C0 C0B0"/>
    </vehicle>
    <vehicle id="veh163" depart="163.00">
        <route edges="B0A0 A0A1 A1B1 B1C1 C1C2 C2B2"/>
    </vehicle>
    <vehicle id="veh164" depart="164.00">
        <route edges="C1B1 B1C1 C1C0"/>
    </vehicle>
    <vehicle id="veh165" depart="165.00">
        <route edges="C1B1 B1A1 A1A2 A2B2"/>
    </vehicle>
    <vehicle id="veh166" depart="166.00">
        <route edges="C0C1 C1B1 B1A1 A1A0"/>
    </vehicle>
    <vehicle id="veh167" depart="167.00">
        <route edges="C1C0"/>
    </vehicle>
    <vehicle id="veh168" depart="168.00">
        <route edges="A2A1 A1B1 B1C1 C1B1"/>
    </vehicle>
    <vehicle id="veh169" depart="169.00">
        <route edges="B1B0 B0A0"/>
    </vehicle>
    <vehicle id="veh170" depart="170.00">
        <route edges="C1B1 B1B2 B2A2 A2A1"/>
    </vehicle>
    <vehicle id="veh171" depart="171.00">
        <route edges="A0A1 A1B1"/>
    </vehicle>
    <vehicle id="veh172" depart="172.00">
        <route edges="B0A0 A0A1 A1B1 B1C1 C1C0"/>
    </vehicle>
    <vehicle id="veh173" depart="173.00">
        <route edges="C2C1 C1B1 B1A1 A1A2 A2B2"/>
    </vehicle>
    <vehicle id="veh174" depart="174.00">
        <route edges="B2B1 B1B0 B0C0"/>
    </vehicle>
    <vehicle id="veh175" depart="175.00">
        <route edges="C2C1 C1B1 B1B2"/>
    </vehicle>
    <vehicle id="veh176" depart="176.00">
        <route edges="C2B2 B2A2 A2A1 A1A0"/>
    </vehicle>
    <vehicle id="veh177" depart="177.00">
        <route edges="C2C1 C1B1 B1A1 A1B1"/>
    </vehicle>
    <vehicle id="veh178" depart="178.00">
        <route edges="C2C1 C1B1 B1A1 A1A2 A2B2"/>
    </vehicle>
    <vehicle id="veh179" depart="179.00">
        <route edges="A1A0 A0B0 B0B1 B1A1"/>
    </vehicle>
    <vehicle id="veh180" depart="180.00">
        <route edges="C0B0 B0A0"/>
    </vehicle>
    <vehicle id="veh181" depart="181.00">
        <route edges="B2A2 A2A1 A1B1 B1B2"/>
    </vehicle>
    <vehicle id="veh182" depart="182.00">
        <route edges="B0C0 C0C1 C1B1 B1C1"/>
    </vehicle>
    <vehicle id="veh183" depart="183.00">
        <route edges="A2B2 B2C2 C2C1 C1C0 C0B0"/>
    </vehicle>
    <vehicle id="veh184" depart="184.00">
        <route edges="A0A1 A1B1 B1C1 C1C2 C2B2"/>
    </vehicle>
    <vehicle id="veh185" depart="185.00">
        <route edges="B1B2 B2C2 C2C1 C1C0 C0B0"/>
    </vehicle>
    <vehicle id="veh186" depart="186.00">
        <route edges="C0B0 B0B1 B1B2 B2C2"/>
    </vehicle>
    <vehicle id="veh187" depart="187.00">
        <route edges="B0B1 B1A1 A1A0 A0B0"/>
    </vehicle>
    <vehicle id="veh188" depart="188.00">
        <route edges="B2B1 B1B0 B0A0"/>
    </vehicle>
    <vehicle id="veh189" depart="189.00">
        <route edges="B0A0 A0A1 A1B1 B1C1 C1C0"/>
    </vehicle>
    <vehicle id="veh190" depart="190.00">
        <route edges="C0B0 B0A0"/>
    </vehicle>
    <vehicle id="veh191" depart="191.00">
        <route edges="B0A0 A0A1 A1B1 B1B0 B0C0"/>
    </vehicle>
    <vehicle id="veh192" depart="192.00">
        <route edges="B0C0 C0C1 C1B1 B1B0 B0A0"/>
    </vehicle>
    <vehicle id="veh193" depart="193.00">
        <route edges="A1A2 A2B2 B2B1 B1A1"/>
    </vehicle>
    <vehicle id="veh194" depart="194.00">
        <route edges="C2B2 B2C2"/>
    </vehicle>
    <vehicle id="veh195" depart="195.00">
        <route edges="C1C2 C2B2 B2A2"/>
    </vehicle>
    <vehicle id="veh196" depart="196.00">
        <route edges="B0A0 A0A1 A1B1 B1C1"/>
    </vehicle>
    <vehicle id="veh197" depart="197.00">
        <route edges="A0A1 A1A2 A2B2"/>
    </vehicle>
    <vehicle id="veh198" depart="198.00">
        <route edges="B1A1 A1B1 B1C1"/>
    </vehicle>
    <vehicle id="veh199" depart="199.00">
        <route edges="B2B1 B1B0"/>
    </vehicle>
    <vehicle id="veh200" depart="200.00">
        <route edges="B1A1 A1A2 A2B2 B2A2 A2A1"/>
    </vehicle>
    <vehicle id="veh201" depart="201.00">
        <route edges="B1B0 B0C0 C0C1 C1C2"/>
    </vehicle>
    <vehicle id="veh202" depart="202.00">
        <route edges="C1B1 B1A1 A1B1"/>
    </vehicle>
    <vehicle id="veh203" depart="203.00">
        <route edges="A1A0 A0B0 B0B1 B1B2"/>
    </vehicle>
    <vehicle id="veh204" depart="204.00">
        <route edges="B2B1 B1B0 B0B1"/>
    </vehicle>
    <vehicle id="veh205" depart="205.00">
        <route edges="C1B1 B1B0 B0C0 C0C1"/>
    </vehicle>
    <vehicle id="veh206" depart="206.00">
        <route edges="B2C2 C2C1 C1B1 B1B2 B2A2 A2A1"/>
    </vehicle>
    <vehicle id="veh207" depart="207.00">
        <route edges="A1B1 B1B0 B0A0 A0A1"/>
    </vehicle>
    <vehicle id="veh208" depart="208.00">
        <route edges="A2A1 A1B1 B1B0"/>
    </vehicle>
    <vehicle id="veh209" depart="209.00">
        <route edges="C1C0 C0B0 B0B1 B1A1 A1A0 A0B0"/>
    </vehicle>
    <vehicle id="veh210" depart="210.00">
        <route edges="B0C0 C0C1 C1C2 C2B2 B2B1"/>
    </vehicle>
    <vehicle id="veh211" depart="211.00">
        <route edges="A1B1 B1B2 B2C2"/>
    </vehicle>
    <vehicle id="veh212" depart="212.00">
        <route edges="B1B0 B0B1 B1B2 B2A2 A2A1"/>
    </vehicle>
    <vehicle id="veh213" depart="213.00">
        <route edges="B2B1 B1B0 B0A0 A0A1"/>
    </vehicle>
    <vehicle id="veh214" depart="214.00">
        <route edges="C0C1"/>
    </vehicle>
    <vehicle id="veh215" depart="215.00">
        <route edges="A1A0 A0B0 B0B1 B1A1"/>
    </vehicle>
    <vehicle id="veh216" depart="216.00">
        <route edges="A1B1 B1C1 C1C2 C2B2"/>
    </vehicle>
    <vehicle id="veh217" depart="217.00">
        <route edges="B1B2 B2A2 A2A1 A1A0 A0B0"/>
    </vehicle>
    <vehicle id="veh218" depart="218.00">
        <route edges="A2A1 A1B1 B1C1 C1C0"/>
    </vehicle>
    <vehicle id="veh219" depart="219.00">
        <route edges="B1A1 A1B1 B1C1 C1B1"/>
    </vehicle>
    <vehicle id="veh220" depart="220.00">
        <route edges="B2C2 C2C1"/>
    </vehicle>
    <vehicle id="veh221" depart="221.00">
        <route edges="B2A2 A2A1 A1B1 B1C1 C1C2 C2B2"/>
    </vehicle>
    <vehicle id="veh222" depart="222.00">
        <route edges="C1C2 C2B2 B2A2"/>
    </vehicle>
    <vehicle id="veh223" depart="223.00">
        <route edges="C0B0 B0B1 B1B2"/>
    </vehicle>
    <vehicle id="veh224" depart="224.00">
        <route edges="C1B1 B1C1"/>
    </vehicle>
    <vehicle id="veh225" depart="225.00">
        <route edges="C1C2 C2B2 B2B1 B1C1 C1C0 C0B0"/>
    </vehicle>
    <vehicle id="veh226" depart="226.00">
        <route edges="B1B0 B0A0 A0A1 A1A2 A2B2"/>
    </vehicle>
    <vehicle id="veh227" depart="227.00">
        <route edges="A2A1 A1A2 A2B2 B2B1"/>
    </vehicle>
    <vehicle id="veh228" depart="228.00">
        <route edges="C0C1 C1B1 B1B2"/>
    </vehicle>
    <vehicle id="veh229" depart="229.00">
        <route edges="B2B1 B1A1 A1A2 A2B2"/>
    </vehicle>
    <vehicle id="veh230" depart="230.00">
        <route edges="A0B0 B0B1 B1A1 A1A2 A2B2"/>
    </vehicle>
    <vehicle id="veh231" depart="231.00">
        <route edges="A2B2 B2B1 B1B0 B0A0"/>
    </vehicle>
    <vehicle id="veh232" depart="232.00">
        <route edges="B1B2 B2B1 B1A1 A1A2"/>
    </vehicle>
    <vehicle id="veh233" depart="233.00">
        <route edges="A2A1 A1B1 B1B2 B2C2"/>
    </vehicle>
    <vehicle id="veh234" depart="234.00">
        <route edges="B2C2 C2C1 C1B1 B1A1 A1A0 A0B0"/>
    </vehicle>
    <vehicle id="veh235" depart="235.00">
        <route edges="B0C0 C0C1 C1B1 B1C1"/>
    </vehicle>
    <vehicle id="veh236" depart="236.00">
        <route edges="B0C0 C0C1 C1B1 B1A1 A1B1"/>
    </vehicle>
    <vehicle id="veh237" depart="237.00">
        <route edges="B1A1 A1B1 B1C1 C1C2"/>
    </vehicle>
    <vehicle id="veh238" depart="238.00">
        <route edges="B2A2 A2A1 A1B1 B1B2 B2C2"/>
    </vehicle>
    <vehicle id="veh239" depart="239.00">
        <route edges="C1C0 C0B0 B0C0 C0C1"/>
    </vehicle>
    <vehicle id="veh240" depart="240.00">
        <route edges="B0C0 C0C1 C1B1 B1B0 B0A0 A0A1"/>
    </vehicle>
    <vehicle id="veh241" depart="241.00">
        <route edges="B0B1 B1B0 B0C0 C0C1"/>
    </vehicle>
    <vehicle id="veh242" depart="242.00">
        <route edges="C1C0 C0B0 B0B1 B1C1 C1C2 C2B2"/>
    </vehicle>
    <vehicle id="veh243" depart="243.00">
        <route edges="B1A1 A1B1 B1C1 C1C0 C0B0"/>
    </vehicle>
    <vehicle id="veh244" depart="244.00">
        <route edges="B1C1 C1C2 C2B2 B2A2"/>
    </vehicle>
    <vehicle id="veh245" depart="245.00">
        <route edges="A2A1"/>
    </vehicle>
    <vehicle id="veh246" depart="246.00">
        <route edges="B1A1 A1B1 B1B0 B0A0 A0A1"/>
    </vehicle>
    <vehicle id="veh247" depart="247.00">
        <route edges="B0B1 B1B2 B2C2"/>
    </vehicle>
    <vehicle id="veh248" depart="248.00">
        <route edges="B0C0 C0C1 C1B1 B1A1 A1A2"/>
    </vehicle>
    <vehicle id="veh249" depart="249.00">
        <route edges="B1B0 B0A0 A0A1 A1A2"/>
    </vehicle>
    <vehicle id="veh250" depart="250.00">
        <route edges="B2A2 A2A1 A1B1 B1B0 B0A0 A0A1"/>
    </vehicle>
    <vehicle id="veh251" depart="251.00">
        <route edges="B0C0 C0C1 C1B1 B1C1"/>
    </vehicle>
    <vehicle id="veh252" depart="252.00">
        <route edges="A0A1 A1A2 A2B2 B2B1"/>
    </vehicle>
    <vehicle id="veh253" depart="253.00">
        <route edges="A1A2 A2B2 B2B1 B1B0"/>
    </vehicle>
    <vehicle id="veh254" depart="254.00">
        <route edges="A0B0 B0C0"/>
    </vehicle>
    <vehicle id="veh255" depart="255.00">
        <route edges="A2A1 A1B1 B1B0 B0A0"/>
    </vehicle>
    <vehicle id="veh256" depart="256.00">
        <route edges="C0C1 C1B1 B1B0 B0C0"/>
    </vehicle>
    <vehicle id="veh257" depart="257.00">
        <route edges="C0C1 C1B1"/>
    </vehicle>
    <vehicle id="veh258" depart="258.00">
        <route edges="A2B2 B2B1 B1A1 A1A0 A0B0"/>
    </vehicle>
    <vehicle id="veh259" depart="259.00">
        <route edges="A0A1 A1B1 B1B2"/>
    </vehicle>
    <vehicle id="veh260" depart="260.00">
        <route edges="C2C1 C1C0 C0B0 B0B1"/>
    </vehicle>
    <vehicle id="veh261" depart="261.00">
        <route edges="B2B1 B1B0 B0C0 C0C1"/>
    </vehicle>
    <vehicle id="veh262" depart="262.00">
        <route edges="B2B1 B1B0 B0C0 C0C1"/>
    </vehicle>
    <vehicle id="veh263" depart="263.00">
        <route edges="C2B2 B2A2 A2A1 A1B1"/>
    </vehicle>
    <vehicle id="veh264" depart="264.00">
        <route edges="A0A1 A1A2"/>
    </vehicle>
    <vehicle id="veh265" depart="265.00">
        <route edges="A1A2 A2B2 B2C2"/>
    </vehicle>
    <vehicle id="veh266" depart="266.00">
        <route edges="B1C1 C1C2 C2B2 B2A2 A2A1"/>
    </vehicle>
    <vehicle id="veh267" depart="267.00">
        <route edges="B2C2 C2C1 C1B1 B1B0 B0C0 C0C1"/>
    </vehicle>
    <vehicle id="veh268" depart="268.00">
        <route edges="A1B1 B1B2 B2A2"/>
    </vehicle>
    <vehicle id="veh269" depart="269.00">
        <route edges="C0B0 B0B1 B1A1 A1A0"/>
    </vehicle>
    <vehicle id="veh270" depart="270.00">
        <route edges="C1B1 B1B2 B2C2 C2C1"/>
    </vehicle>
    <vehicle id="veh271" depart="271.00">
        <route edges="A1A0 A0B0 B0A0 A0A1"/>
    </vehicle>
    <vehicle id="veh272" depart="272.00">
        <route edges="B0A0 A0A1 A1A2 A2B2 B2C2"/>
    </vehicle>
    <vehicle id="veh273" depart="273.00">
        <route edges="C2B2 B2B1 B1B0 B0C0"/>
    </vehicle>
    <vehicle id="veh274" depart="274.00">
        <route edges="C0B0 B0B1 B1A1 A1A0 A0B0"/>
    </vehicle>
    <vehicle id="veh275" depart="275.00">
        <route edges="B2C2 C2C1 C1B1 B1B2 B2B1"/>
    </vehicle>
    <vehicle id="veh276" depart="276.00">
        <route edges="A1A0 A0B0 B0C0 C0C1"/>
    </vehicle>
    <vehicle id="veh277" depart="277.00">
        <route edges="C1C0 C0B0 B0B1 B1B2 B2A2"/>
    </vehicle>
    <vehicle id="veh278" depart="278.00">
        <route edges="A1A0 A0B0 B0B1 B1B2 B2C2 C2C1"/>
    </vehicle>
    <vehicle id="veh279" depart="279.00">
        <route edges="C0C1 C1C0 C0B0 B0B1"/>
    </vehicle>
    <vehicle id="veh280" depart="280.00">
        <route edges="B1A1 A1A0 A0B0 B0B1"/>
    </vehicle>
    <vehicle id="veh281" depart="281.00">
        <route edges="B1B2 B2B1 B1B0 B0B1"/>
    </vehicle>
    <vehicle id="veh282" depart="282.00">
        <route edges="C1C0 C0B0 B0B1 B1C1 C1B1"/>
    </vehicle>
    <vehicle id="veh283" depart="283.00">
        <route edges="A1A0 A0B0 B0B1 B1B2 B2C2 C2C1"/>
    </vehicle>
    <vehicle id="veh284" depart="284.00">
        <route edges="B2B1 B1C1 C1B1"/>
    </vehicle>