<?xml version="1.0" encoding="UTF-8"?>

<!-- generated on 2025-12-26T03:08:33.579074+05:30 by Eclipse SUMO netgenerate 1.25.0
<netgenerateConfiguration xmlns:xsi="http://www.w3.org/2001/XMLSchema-instance" xsi:noNamespaceSchemaLocation="http://sumo.dlr.de/xsd/netgenerateConfiguration.xsd">

    <grid_network>
        <grid value="true"/>
        <grid.number value="3"/>
        <grid.length value="300"/>
    </grid_network>

    <output>
        <output-file value="network/grid.net.xml"/>
    </output>

    <building_defaults>
        <default.lanenumber value="2"/>
    </building_defaults>

    <tls_building>
        <tls.guess value="true"/>
    </tls_building>

</netgenerateConfiguration>
-->

<net version="1.20" junctionCornerDetail="5" limitTurnSpeed="5.50" xmlns:xsi="http://www.w3.org/2001/XMLSchema-instance" xsi:noNamespaceSchemaLocation="http://sumo.dlr.de/xsd/net_file.xsd">

    <location netOffset="0.00,0.00" convBoundary="0.00,0.00,600.00,600.00" origBoundary="0.00,0.00,600.00,600.00" projParameter="!"/>

    <edge id=":A0_0" function="internal">
        <lane id=":A0_0_0" index="0" speed="8.96" length="18.06" shape="-4.80,6.40 -4.10,1.50 -2.00,-2.00 1.50,-4.10 6.40,-4.80"/>
        <lane id=":A0_0_1" index="1" speed="7.66" length="12.90" shape="-1.60,6.40 -1.10,2.90 0.40,0.40 2.90,-1.10 6.40,-1.60"/>
    </edge>
    <edge id=":A0_2" function="internal">
        <lane id=":A0_2_0" index="0" speed="3.90" length="2.58" shape="6.40,4.80 5.70,4.90 5.20,5.20 4.90,5.70 4.80,6.40"/>
        <lane id=":A0_2_1" index="1" speed="6.08" length="7.74" shape="6.40,1.60 4.30,1.90 2.80,2.80 1.90,4.30 1.60,6.40"/>
    </edge>
    <edge id=":A1_0" function="internal">
        <lane id=":A1_0_0" index="0" speed="13.89" length="20.80" shape="-4.80,310.40 -4.80,289.60"/>
        <lane id=":A1_0_1" index="1" speed="13.89" length="20.80" shape="-1.60,310.40 -1.60,289.60"/>
    </edge>
    <edge id=":A1_2" function="internal">
        <lane id=":A1_2_0" index="0" speed="9.26" length="5.01" shape="-1.60,310.40 -0.89,305.44"/>
    </edge>
    <edge id=":A1_3" function="internal">
        <lane id=":A1_3_0" index="0" speed="3.65" length="1.44" shape="-1.60,310.40 -0.80,309.20"/>
    </edge>
    <edge id=":A1_12" function="internal">
        <lane id=":A1_12_0" index="0" speed="9.26" length="14.34" shape="-0.89,305.44 -0.85,305.15 1.40,301.40 5.15,299.15 10.40,298.40"/>
    </edge>
    <edge id=":A1_13" function="internal">
        <lane id=":A1_13_0" index="0" speed="3.65" length="3.23" shape="-0.80,309.20 0.00,308.80 0.80,309.20 1.60,310.40"/>
    </edge>
    <edge id=":A1_4" function="internal">
        <lane id=":A1_4_0" index="0" speed="6.51" length="9.03" shape="10.40,304.80 7.95,305.15 6.20,306.20 5.15,307.95 4.80,310.40"/>
        <lane id=":A1_4_1" index="1" speed="8.00" length="14.19" shape="10.40,301.60 6.55,302.15 3.80,303.80 2.15,306.55 1.60,310.40"/>
    </edge>
    <edge id=":A1_6" function="internal">
        <lane id=":A1_6_0" index="0" speed="9.26" length="19.35" shape="10.40,301.60 5.15,300.85 1.40,298.60 -0.85,294.85 -1.60,289.60"/>
    </edge>
    <edge id=":A1_7" function="internal">
        <lane id=":A1_7_0" index="0" speed="3.65" length="2.34" shape="10.40,301.60 9.20,300.80 8.80,300.00"/>
    </edge>
    <edge id=":A1_14" function="internal">
        <lane id=":A1_14_0" index="0" speed="3.65" length="2.34" shape="8.80,300.00 9.20,299.20 10.40,298.40"/>
    </edge>
    <edge id=":A1_8" function="internal">
        <lane id=":A1_8_0" index="0" speed="6.51" length="9.03" shape="4.80,289.60 5.15,292.05 6.20,293.80 7.95,294.85 10.40,295.20"/>
    </edge>
    <edge id=":A1_9" function="internal">
        <lane id=":A1_9_0" index="0" speed="13.89" length="20.80" shape="4.80,289.60 4.80,310.40"/>
        <lane id=":A1_9_1" index="1" speed="13.89" length="20.80" shape="1.60,289.60 1.60,310.40"/>
    </edge>
    <edge id=":A1_11" function="internal">
        <lane id=":A1_11_0" index="0" speed="3.65" length="1.44" shape="1.60,289.60 0.80,290.80"/>
    </edge>
    <edge id=":A1_15" function="internal">
        <lane id=":A1_15_0" index="0" speed="3.65" length="3.23" shape="0.80,290.80 0.00,291.20 -0.80,290.80 -1.60,289.60"/>
    </edge>
    <edge id=":A2_0" function="internal">
        <lane id=":A2_0_0" index="0" speed="8.96" length="18.06" shape="6.40,604.80 1.50,604.10 -2.00,602.00 -4.10,598.50 -4.80,593.60"/>
        <lane id=":A2_0_1" index="1" speed="7.66" length="12.90" shape="6.40,601.60 2.90,601.10 0.40,599.60 -1.10,597.10 -1.60,593.60"/>
    </edge>
    <edge id=":A2_2" function="internal">
        <lane id=":A2_2_0" index="0" speed="3.90" length="2.58" shape="4.80,593.60 4.90,594.30 5.20,594.80 5.70,595.10 6.40,595.20"/>
        <lane id=":A2_2_1" index="1" speed="6.08" length="7.74" shape="1.60,593.60 1.90,595.70 2.80,597.20 4.30,598.10 6.40,598.40"/>
    </edge>
    <edge id=":B0_0" function="internal">
        <lane id=":B0_0_0" index="0" speed="6.51" length="9.03" shape="295.20,10.40 294.85,7.95 293.80,6.20 292.05,5.15 289.60,4.80"/>
        <lane id=":B0_0_1" index="1" speed="8.00" length="14.19" shape="298.40,10.40 297.85,6.55 296.20,3.80 293.45,2.15 289.60,1.60"/>
    </edge>
    <edge id=":B0_2" function="internal">
        <lane id=":B0_2_0" index="0" speed="9.26" length="19.35" shape="298.40,10.40 299.15,5.15 301.40,1.40 305.15,-0.85 310.40,-1.60"/>
    </edge>
    <edge id=":B0_3" function="internal">
        <lane id=":B0_3_0" index="0" speed="3.65" length="2.34" shape="298.40,10.40 299.20,9.20 300.00,8.80"/>
    </edge>
    <edge id=":B0_12" function="internal">
        <lane id=":B0_12_0" index="0" speed="3.65" length="2.34" shape="300.00,8.80 300.80,9.20 301.60,10.40"/>
    </edge>
    <edge id=":B0_4" function="internal">
        <lane id=":B0_4_0" index="0" speed="6.51" length="9.03" shape="310.40,4.80 307.95,5.15 306.20,6.20 305.15,7.95 304.80,10.40"/>
    </edge>
    <edge id=":B0_5" function="internal">
        <lane id=":B0_5_0" index="0" speed="13.89" length="20.80" shape="310.40,4.80 289.60,4.80"/>
        <lane id=":B0_5_1" index="1" speed="13.89" length="20.80" shape="310.40,1.60 289.60,1.60"/>
    </edge>
    <edge id=":B0_7" function="internal">
        <lane id=":B0_7_0" index="0" speed="3.65" length="1.44" shape="310.40,1.60 309.20,0.80"/>
    </edge>
    <edge id=":B0_13" function="internal">
        <lane id=":B0_13_0" index="0" speed="3.65" length="3.23" shape="309.20,0.80 308.80,0.00 309.20,-0.80 310.40,-1.60"/>
    </edge>
    <edge id=":B0_8" function="internal">
        <lane id=":B0_8_0" index="0" speed="13.89" length="20.80" shape="289.60,-4.80 310.40,-4.80"/>
        <lane id=":B0_8_1" index="1" speed="13.89" length="20.80" shape="289.60,-1.60 310.40,-1.60"/>
    </edge>
    <edge id=":B0_10" function="internal">
        <lane id=":B0_10_0" index="0" speed="9.26" length="5.01" shape="289.60,-1.60 294.56,-0.89"/>
    </edge>
    <edge id=":B0_11" function="internal">
        <lane id=":B0_11_0" index="0" speed="3.65" length="1.44" shape="289.60,-1.60 290.80,-0.80"/>
    </edge>
    <edge id=":B0_14" function="internal">
        <lane id=":B0_14_0" index="0" speed="9.26" length="14.34" shape="294.56,-0.89 294.85,-0.85 298.60,1.40 300.85,5.15 301.60,10.40"/>
    </edge>
    <edge id=":B0_15" function="internal">
        <lane id=":B0_15_0" index="0" speed="3.65" length="3.23" shape="290.80,-0.80 291.20,0.00 290.80,0.80 289.60,1.60"/>
    </edge>
    <edge id=":B1_0" function="internal">
        <lane id=":B1_0_0" index="0" speed="6.51" length="9.03" shape="295.20,310.40 294.85,307.95 293.80,306.20 292.05,305.15 289.60,304.80"/>
    </edge>
    <edge id=":B1_1" function="internal">
        <lane id=":B1_1_0" index="0" speed="13.89" length="20.80" shape="295.20,310.40 295.20,289.60"/>
        <lane id=":B1_1_1" index="1" speed="13.89" length="20.80" shape="298.40,310.40 298.40,289.60"/>
    </edge>
    <edge id=":B1_3" function="internal">
        <lane id=":B1_3_0" index="0" speed="9.26" length="5.01" shape="298.40,310.40 299.11,305.44"/>
    </edge>
    <edge id=":B1_4" function="internal">
        <lane id=":B1_4_0" index="0" speed="3.65" length="1.44" shape="298.40,310.40 299.20,309.20"/>
    </edge>
    <edge id=":B1_20" function="internal">
        <lane id=":B1_20_0" index="0" speed="9.26" length="14.34" shape="299.11,305.44 299.15,305.15 301.40,301.40 305.15,299.15 310.40,298.40"/>
    </edge>
    <edge id=":B1_21" function="internal">
        <lane id=":B1_21_0" index="0" speed="3.65" length="3.23" shape="299.20,309.20 300.00,308.80 300.80,309.20 301.60,310.40"/>
    </edge>
    <edge id=":B1_5" function="internal">
        <lane id=":B1_5_0" index="0" speed="6.51" length="9.03" shape="310.40,304.80 307.95,305.15 306.20,306.20 305.15,307.95 304.80,310.40"/>
    </edge>
    <edge id=":B1_6" function="internal">
        <lane id=":B1_6_0" index="0" speed="13.89" length="20.80" shape="310.40,304.80 289.60,304.80"/>
        <lane id=":B1_6_1" index="1" speed="13.89" length="20.80" shape="310.40,301.60 289.60,301.60"/>
    </edge>
    <edge id=":B1_8" function="internal">
        <lane id=":B1_8_0" index="0" speed="9.26" length="5.01" shape="310.40,301.60 305.44,300.89"/>
    </edge>
    <edge id=":B1_9" function="internal">
        <lane id=":B1_9_0" index="0" speed="3.65" length="1.44" shape="310.40,301.60 309.20,300.80"/>
    </edge>
    <edge id=":B1_22" function="internal">
        <lane id=":B1_22_0" index="0" speed="9.26" length="14.34" shape="305.44,300.89 305.15,300.85 301.40,298.60 299.15,294.85 298.40,289.60"/>
    </edge>
    <edge id=":B1_23" function="internal">
        <lane id=":B1_23_0" index="0" speed="3.65" length="3.23" shape="309.20,300.80 308.80,300.00 309.20,299.20 310.40,298.40"/>
    </edge>
    <edge id=":B1_10" function="internal">
        <lane id=":B1_10_0" index="0" speed="6.51" length="9.03" shape="304.80,289.60 305.15,292.05 306.20,293.80 307.95,294.85 310.40,295.20"/>
    </edge>
    <edge id=":B1_11" function="internal">
        <lane id=":B1_11_0" index="0" speed="13.89" length="20.80" shape="304.80,289.60 304.80,310.40"/>
        <lane id=":B1_11_1" index="1" speed="13.89" length="20.80" shape="301.60,289.60 301.60,310.40"/>
    </edge>
    <edge id=":B1_13" function="internal">
        <lane id=":B1_13_0" index="0" speed="9.26" length="5.01" shape="301.60,289.60 300.89,294.56"/>
    </edge>
    <edge id=":B1_14" function="internal">
        <lane id=":B1_14_0" index="0" speed="3.65" length="1.44" shape="301.60,289.60 300.80,290.80"/>
    </edge>
    <edge id=":B1_24" function="internal">
        <lane id=":B1_24_0" index="0" speed="9.26" length="14.34" shape="300.89,294.56 300.85,294.85 298.60,298.60 294.85,300.85 289.60,301.60"/>
    </edge>
    <edge id=":B1_25" function="internal">
        <lane id=":B1_25_0" index="0" speed="3.65" length="3.23" shape="300.80,290.80 300.00,291.20 299.20,290.80 298.40,289.60"/>
    </edge>
    <edge id=":B1_15" function="internal">
        <lane id=":B1_15_0" index="0" speed="6.51" length="9.03" shape="289.60,295.20 292.05,294.85 293.80,293.80 294.85,292.05 295.20,289.60"/>
    </edge>
    <edge id=":B1_16" function="internal">
        <lane id=":B1_16_0" index="0" speed="13.89" length="20.80" shape="289.60,295.20 310.40,295.20"/>
        <lane id=":B1_16_1" index="1" speed="13.89" length="20.80" shape="289.60,298.40 310.40,298.40"/>
    </edge>
    <edge id=":B1_18" function="internal">
        <lane id=":B1_18_0" index="0" speed="9.26" length="5.01" shape="289.60,298.40 294.56,299.11"/>
    </edge>
    <edge id=":B1_19" function="internal">
        <lane id=":B1_19_0" index="0" speed="3.65" length="1.44" shape="289.60,298.40 290.80,299.20"/>
    </edge>
    <edge id=":B1_26" function="internal">
        <lane id=":B1_26_0" index="0" speed="9.26" length="14.34" shape="294.56,299.11 294.85,299.15 298.60,301.40 300.85,305.15 301.60,310.40"/>
    </edge>
    <edge id=":B1_27" function="internal">
        <lane id=":B1_27_0" index="0" speed="3.65" length="3.23" shape="290.80,299.20 291.20,300.00 290.80,300.80 289.60,301.60"/>
    </edge>
    <edge id=":B2_0" function="internal">
        <lane id=":B2_0_0" index="0" speed="13.89" length="20.80" shape="310.40,604.80 289.60,604.80"/>
        <lane id=":B2_0_1" index="1" speed="13.89" length="20.80" shape="310.40,601.60 289.60,601.60"/>
    </edge>
    <edge id=":B2_2" function="internal">
        <lane id=":B2_2_0" index="0" speed="9.26" length="5.01" shape="310.40,601.60 305.44,600.89"/>
    </edge>
    <edge id=":B2_3" function="internal">
        <lane id=":B2_3_0" index="0" speed="3.65" length="1.44" shape="310.40,601.60 309.20,600.80"/>
    </edge>
    <edge id=":B2_12" function="internal">
        <lane id=":B2_12_0" index="0" speed="9.26" length="14.34" shape="305.44,600.89 305.15,600.85 301.40,598.60 299.15,594.85 298.40,589.60"/>
    </edge>
    <edge id=":B2_13" function="internal">
        <lane id=":B2_13_0" index="0" speed="3.65" length="3.23" shape="309.20,600.80 308.80,600.00 309.20,599.20 310.40,598.40"/>
    </edge>
    <edge id=":B2_4" function="internal">
        <lane id=":B2_4_0" index="0" speed="6.51" length="9.03" shape="304.80,589.60 305.15,592.05 306.20,593.80 307.95,594.85 310.40,595.20"/>
        <lane id=":B2_4_1" index="1" speed="8.00" length="14.19" shape="301.60,589.60 302.15,593.45 303.80,596.20 306.55,597.85 310.40,598.40"/>
    </edge>
    <edge id=":B2_6" function="internal">
        <lane id=":B2_6_0" index="0" speed="9.26" length="19.35" shape="301.60,589.60 300.85,594.85 298.60,598.60 294.85,600.85 289.60,601.60"/>
    </edge>
    <edge id=":B2_7" function="internal">
        <lane id=":B2_7_0" index="0" speed="3.65" length="2.34" shape="301.60,589.60 300.80,590.80 300.00,591.20"/>
    </edge>
    <edge id=":B2_14" function="internal">
        <lane id=":B2_14_0" index="0" speed="3.65" length="2.34" shape="300.00,591.20 299.20,590.80 298.40,589.60"/>
    </edge>
    <edge id=":B2_8" function="internal">
        <lane id=":B2_8_0" index="0" speed="6.51" length="9.03" shape="289.60,595.20 292.05,594.85 293.80,593.80 294.85,592.05 295.20,589.60"/>
    </edge>
    <edge id=":B2_9" function="internal">
        <lane id=":B2_9_0" index="0" speed="13.89" length="20.80" shape="289.60,595.20 310.40,595.20"/>
        <lane id=":B2_9_1" index="1" speed="13.89" length="20.80" shape="289.60,598.40 310.40,598.40"/>
    </edge>
    <edge id=":B2_11" function="internal">
        <lane id=":B2_11_0" index="0" speed="3.65" length="1.44" shape="289.60,598.40 290.80,599.20"/>
    </edge>
    <edge id=":B2_15" function="internal">
        <lane id=":B2_15_0" index="0" speed="3.65" length="3.23" shape="290.80,599.20 291.20,600.00 290.80,600.80 289.60,601.60"/>
    </edge>
    <edge id=":C0_0" function="internal">
        <lane id=":C0_0_0" index="0" speed="3.90" length="2.58" shape="595.20,6.40 595.10,5.70 594.80,5.20 594.30,4.90 593.60,4.80"/>
        <lane id=":C0_0_1" index="1" speed="6.08" length="7.74" shape="598.40,6.40 598.10,4.30 597.20,2.80 595.70,1.90 593.60,1.60"/>
    </edge>
    <edge id=":C0_2" function="internal">
        <lane id=":C0_2_0" index="0" speed="8.96" length="18.06" shape="593.60,-4.80 598.50,-4.10 602.00,-2.00 604.10,1.50 604.80,6.40"/>
        <lane id=":C0_2_1" index="1" speed="7.66" length="12.90" shape="593.60,-1.60 597.10,-1.10 599.60,0.40 601.10,2.90 601.60,6.40"/>
    </edge>
    <edge id=":C1_0" function="internal">
        <lane id=":C1_0_0" index="0" speed="6.51" length="9.03" shape="595.20,310.40 594.85,307.95 593.80,306.20 592.05,305.15 589.60,304.80"/>
    </edge>
    <edge id=":C1_1" function="internal">
        <lane id=":C1_1_0" index="0" speed="13.89" length="20.80" shape="595.20,310.40 595.20,289.60"/>
        <lane id=":C1_1_1" index="1" speed="13.89" length="20.80" shape="598.40,310.40 598.40,289.60"/>
    </edge>
    <edge id=":C1_3" function="internal">
        <lane id=":C1_3_0" index="0" speed="3.65" length="1.44" shape="598.40,310.40 599.20,309.20"/>
    </edge>
    <edge id=":C1_12" function="internal">
        <lane id=":C1_12_0" index="0" speed="3.65" length="3.23" shape="599.20,309.20 600.00,308.80 600.80,309.20 601.60,310.40"/>
    </edge>
    <edge id=":C1_4" function="internal">
        <lane id=":C1_4_0" index="0" speed="13.89" length="20.80" shape="604.80,289.60 604.80,310.40"/>
        <lane id=":C1_4_1" index="1" speed="13.89" length="20.80" shape="601.60,289.60 601.60,310.40"/>
    </edge>
    <edge id=":C1_6" function="internal">
        <lane id=":C1_6_0" index="0" speed="9.26" length="5.01" shape="601.60,289.60 600.89,294.56"/>
    </edge>
    <edge id=":C1_7" function="internal">
        <lane id=":C1_7_0" index="0" speed="3.65" length="1.44" shape="601.60,289.60 600.80,290.80"/>
    </edge>
    <edge id=":C1_13" function="internal">
        <lane id=":C1_13_0" index="0" speed="9.26" length="14.34" shape="600.89,294.56 600.85,294.85 598.60,298.60 594.85,300.85 589.60,301.60"/>
    </edge>
    <edge id=":C1_14" function="internal">
        <lane id=":C1_14_0" index="0" speed="3.65" length="3.23" shape="600.80,290.80 600.00,291.20 599.20,290.80 598.40,289.60"/>
    </edge>
    <edge id=":C1_8" function="internal">
        <lane id=":C1_8_0" index="0" speed="6.51" length="9.03" shape="589.60,295.20 592.05,294.85 593.80,293.80 594.85,292.05 595.20,289.60"/>
        <lane id=":C1_8_1" index="1" speed="8.00" length="14.19" shape="589.60,298.40 593.45,297.85 596.20,296.20 597.85,293.45 598.40,289.60"/>
    </edge>
    <edge id=":C1_10" function="internal">
        <lane id=":C1_10_0" index="0" speed="9.26" length="19.35" shape="589.60,298.40 594.85,299.15 598.60,301.40 600.85,305.15 601.60,310.40"/>
    </edge>
    <edge id=":C1_11" function="internal">
        <lane id=":C1_11_0" index="0" speed="3.65" length="2.34" shape="589.60,298.40 590.80,299.20 591.20,300.00"/>
    </edge>
    <edge id=":C1_15" function="internal">
        <lane id=":C1_15_0" index="0" speed="3.65" length="2.34" shape="591.20,300.00 590.80,300.80 589.60,301.60"/>
    </edge>
    <edge id=":C2_0" function="internal">
        <lane id=":C2_0_0" index="0" speed="8.96" length="18.06" shape="604.80,593.60 604.10,598.50 602.00,602.00 598.50,604.10 593.60,604.80"/>
        <lane id=":C2_0_1" index="1" speed="7.66" length="12.90" shape="601.60,593.60 601.10,597.10 599.60,599.60 597.10,601.10 593.60,601.60"/>
    </edge>
    <edge id=":C2_2" function="internal">
        <lane id=":C2_2_0" index="0" speed="3.90" length="2.58" shape="593.60,595.20 594.30,595.10 594.80,594.80 595.10,594.30 595.20,593.60"/>
        <lane id=":C2_2_1" index="1" speed="6.08" length="7.74" shape="593.60,598.40 595.70,598.10 597.20,597.20 598.10,595.70 598.40,593.60"/>
    </edge>

    <edge id="A0A1" from="A0" to="A1" priority="-1">
        <lane id="A0A1_0" index="0" speed="13.89" length="283.20" shape="4.80,6.40 4.80,289.60"/>
        <lane id="A0A1_1" index="1" speed="13.89" length="283.20" shape="1.60,6.40 1.60,289.60"/>
    </edge>
    <edge id="A0B0" from="A0" to="B0" priority="-1">
        <lane id="A0B0_0" index="0" speed="13.89" length="283.20" shape="6.40,-4.80 289.60,-4.80"/>
        <lane id="A0B0_1" index="1" speed="13.89" length="283.20" shape="6.40,-1.60 289.60,-1.60"/>
    </edge>
    <edge id="A1A0" from="A1" to="A0" priority="-1">
        <lane id="A1A0_0" index="0" speed="13.89" length="283.20" shape="-4.80,289.60 -4.80,6.40"/>
        <lane id="A1A0_1" index="1" speed="13.89" length="283.20" shape="-1.60,289.60 -1.60,6.40"/>
    </edge>
    <edge id="A1A2" from="A1" to="A2" priority="-1">
        <lane id="A1A2_0" index="0" speed="13.89" length="283.20" shape="4.80,310.40 4.80,593.60"/>
        <lane id="A1A2_1" index="1" speed="13.89" length="283.20" shape="1.60,310.40 1.60,593.60"/>
    </edge>
    <edge id="A1B1" from="A1" to="B1" priority="-1">
        <lane id="A1B1_0" index="0" speed="13.89" length="279.20" shape="10.40,295.20 289.60,295.20"/>
        <lane id="A1B1_1" index="1" speed="13.89" length="279.20" shape="10.40,298.40 289.60,298.40"/>
    </edge>
    <edge id="A2A1" from="A2" to="A1" priority="-1">
        <lane id="A2A1_0" index="0" speed="13.89" length="283.20" shape="-4.80,593.60 -4.80,310.40"/>
        <lane id="A2A1_1" index="1" speed="13.89" length="283.20" shape="-1.60,593.60 -1.60,310.40"/>
    </edge>
    <edge id="A2B2" from="A2" to="B2" priority="-1">
        <lane id="A2B2_0" index="0" speed="13.89" length="283.20" shape="6.40,595.20 289.60,595.20"/>
        <lane id="A2B2_1" index="1" speed="13.89" length="283.20" shape="6.40,598.40 289.60,598.40"/>
    </edge>
    <edge id="B0A0" from="B0" to="A0" priority="-1">
        <lane id="B0A0_0" index="0" speed="13.89" length="283.20" shape="289.60,4.80 6.40,4.80"/>
        <lane id="B0A0_1" index="1" speed="13.89" length="283.20" shape="289.60,1.60 6.40,1.60"/>
    </edge>
    <edge id="B0B1" from="B0" to="B1" priority="-1">
        <lane id="B0B1_0" index="0" speed="13.89" length="279.20" shape="304.80,10.40 304.80,289.60"/>
        <lane id="B0B1_1" index="1" speed="13.89" length="279.20" shape="301.60,10.40 301.60,289.60"/>
    </edge>
    <edge id="B0C0" from="B0" to="C0" priority="-1">
        <lane id="B0C0_0" index="0" speed="13.89" length="283.20" shape="310.40,-4.80 593.60,-4.80"/>
        <lane id="B0C0_1" index="1" speed="13.89" length="283.20" shape="310.40,-1.60 593.60,-1.60"/>
    </edge>
    <edge id="B1A1" from="B1" to="A1" priority="-1">
        <lane id="B1A1_0" index="0" speed="13.89" length="279.20" shape="289.60,304.80 10.40,304.80"/>
        <lane id="B1A1_1" index="1" speed="13.89" length="279.20" shape="289.60,301.60 10.40,301.60"/>
    </edge>
    <edge id="B1B0" from="B1" to="B0" priority="-1">
        <lane id="B1B0_0" index="0" speed="13.89" length="279.20" shape="295.20,289.60 295.20,10.40"/>
        <lane id="B1B0_1" index="1" speed="13.89" length="279.20" shape="298.40,289.60 298.40,10.40"/>
    </edge>
    <edge id="B1B2" from="B1" to="B2" priority="-1">
        <lane id="B1B2_0" index="0" speed="13.89" length="279.20" shape="304.80,310.40 304.80,589.60"/>
        <lane id="B1B2_1" index="1" speed="13.89" length="279.20" shape="301.60,310.40 301.60,589.60"/>
    </edge>
    <edge id="B1C1" from="B1" to="C1" priority="-1">
        <lane id="B1C1_0" index="0" speed="13.89" length="279.20" shape="310.40,295.20 589.60,295.20"/>
        <lane id="B1C1_1" index="1" speed="13.89" length="279.20" shape="310.40,298.40 589.60,298.40"/>
    </edge>
    <edge id="B2A2" from="B2" to="A2" priority="-1">
        <lane id="B2A2_0" index="0" speed="13.89" length="283.20" shape="289.60,604.80 6.40,604.80"/>
        <lane id="B2A2_1" index="1" speed="13.89" length="283.20" shape="289.60,601.60 6.40,601.60"/>
    </edge>
    <edge id="B2B1" from="B2" to="B1" priority="-1">
        <lane id="B2B1_0" index="0" speed="13.89" length="279.20" shape="295.20,589.60 295.20,310.40"/>
        <lane id="B2B1_1" index="1" speed="13.89" length="279.20" shape="298.40,589.60 298.40,310.40"/>
    </edge>
    <edge id="B2C2" from="B2" to="C2" priority="-1">
        <lane id="B2C2_0" index="0" speed="13.89" length="283.20" shape="310.40,595.20 593.60,595.20"/>
        <lane id="B2C2_1" index="1" speed="13.89" length="283.20" shape="310.40,598.40 593.60,598.40"/>
    </edge>
    <edge id="C0B0" from="C0" to="B0" priority="-1">
        <lane id="C0B0_0" index="0" speed="13.89" length="283.20" shape="593.60,4.80 310.40,4.80"/>
        <lane id="C0B0_1" index="1" speed="13.89" length="283.20" shape="593.60,1.60 310.40,1.60"/>
    </edge>
    <edge id="C0C1" from="C0" to="C1" priority="-1">
        <lane id="C0C1_0" index="0" speed="13.89" length="283.20" shape="604.80,6.40 604.80,289.60"/>
        <lane id="C0C1_1" index="1" speed="13.89" length="283.20" shape="601.60,6.40 601.60,289.60"/>
    </edge>
    <edge id="C1B1" from="C1" to="B1" priority="-1">
        <lane id="C1B1_0" index="0" speed="13.89" length="279.20" shape="589.60,304.80 310.40,304.80"/>
        <lane id="C1B1_1" index="1" speed="13.89" length="279.20" shape="589.60,301.60 310.40,301.60"/>
    </edge>
    <edge id="C1C0" from="C1" to="C0" priority="-1">
        <lane id="C1C0_0" index="0" speed="13.89" length="283.20" shape="595.20,289.60 595.20,6.40"/>
        <lane id="C1C0_1" index="1" speed="13.89" length="283.20" shape="598.40,289.60 598.40,6.40"/>
    </edge>
    <edge id="C1C2" from="C1" to="C2" priority="-1">
        <lane id="C1C2_0" index="0" speed="13.89" length="283.20" shape="604.80,310.40 604.80,593.60"/>
        <lane id="C1C2_1" index="1" speed="13.89" length="283.20" shape="601.60,310.40 601.60,593.60"/>
    </edge>
    <edge id="C2B2" from="C2" to="B2" priority="-1">
        <lane id="C2B2_0" index="0" speed="13.89" length="283.20" shape="593.60,604.80 310.40,604.80"/>
        <lane id="C2B2_1" index="1" speed="13.89" length="283.20" shape="593.60,601.60 310.40,601.60"/>
    </edge>
    <edge id="C2C1" from="C2" to="C1" priority="-1">
        <lane id="C2C1_0" index="0" speed="13.89" length="283.20" shape="595.20,593.60 595.20,310.40"/>
        <lane id="C2C1_1" index="1" speed="13.89" length="283.20" shape="598.40,593.60 598.40,310.40"/>
    </edge>

    <tlLogic id="A1" type="static" programID="0" offset="0">
        <phase duration="42" state="GGggrrrrGGGg"/>
        <phase duration="3"  state="yyyyrrrrGyyy"/>
        <phase duration="42" state="rrrrGGGgGrrr"/>
        <phase duration="3"  state="rrrryyyyGrrr"/>
    </tlLogic>
    <tlLogic id="B0" type="static" programID="0" offset="0">
        <phase duration="42" state="rrrrGGGgGGgg"/>
        <phase duration="3"  state="rrrrGyyyyyyy"/>
        <phase duration="42" state="GGGgGrrrrrrr"/>
        <phase duration="3"  state="yyyyGrrrrrrr"/>
    </tlLogic>
    <tlLogic id="B1" type="static" programID="0" offset="0">
        <phase duration="42" state="GGGggrrrrrGGGggrrrrr"/>
        <phase duration="3"  state="yyyyyrrrrryyyyyrrrrr"/>
        <phase duration="42" state="rrrrrGGGggrrrrrGGGgg"/>
        <phase duration="3"  state="rrrrryyyyyrrrrryyyyy"/>
    </tlLogic>
    <tlLogic id="B2" type="static" programID="0" offset="0">
        <phase duration="42" state="GGggrrrrGGGg"/>
        <phase duration="3"  state="yyyyrrrrGyyy"/>
        <phase duration="42" state="rrrrGGGgGrrr"/>
        <phase duration="3"  state="rrrryyyyGrrr"/>
    </tlLogic>
    <tlLogic id="C1" type="static" programID="0" offset="0">
        <phase duration="42" state="GGGgGGggrrrr"/>
        <phase duration="3"  state="Gyyyyyyyrrrr"/>
        <phase duration="42" state="GrrrrrrrGGGg"/>
        <phase duration="3"  state="Grrrrrrryyyy"/>
    </tlLogic>

    <junction id="A0" type="priority" x="0.00" y="0.00" incLanes="A1A0_0 A1A0_1 B0A0_0 B0A0_1" intLanes=":A0_0_0 :A0_0_1 :A0_2_0 :A0_2_1" shape="-6.40,6.40 6.40,6.40 6.40,-6.40 2.49,-6.04 -0.71,-4.98 -3.20,-3.20 -4.98,-0.71 -6.04,2.49">
        <request index="0" response="0000" foes="0000" cont="0"/>
        <request index="1" response="0000" foes="0000" cont="0"/>
        <request index="2" response="0000" foes="0000" cont="0"/>
        <request index="3" response="0000" foes="0000" cont="0"/>
    </junction>
    <junction id="A1" type="traffic_light" x="0.00" y="300.00" incLanes="A2A1_0 A2A1_1 B1A1_0 B1A1_1 A0A1_0 A0A1_1" intLanes=":A1_0_0 :A1_0_1 :A1_12_0 :A1_13_0 :A1_4_0 :A1_4_1 :A1_6_0 :A1_14_0 :A1_8_0 :A1_9_0 :A1_9_1 :A1_15_0" shape="-6.40,310.40 6.40,310.40 6.84,308.18 7.40,307.40 8.18,306.84 9.18,306.51 10.40,306.40 10.40,293.60 8.18,293.16 7.40,292.60 6.84,291.82 6.51,290.82 6.40,289.60 -6.40,289.60">
        <request index="0"  response="000000000000" foes="100001000000" cont="0"/>
        <request index="1"  response="000000000000" foes="100001000000" cont="0"/>
        <request index="2"  response="011000000000" foes="011011000000" cont="1"/>
        <request index="3"  response="011000110000" foes="011000110000" cont="1"/>
        <request index="4"  response="011000000000" foes="011000001000" cont="0"/>
        <request index="5"  response="011000000000" foes="011000001000" cont="0"/>
        <request index="6"  response="011000000111" foes="111000000111" cont="0"/>
        <request index="7"  response="000000000100" foes="000000000100" cont="1"/>
        <request index="8"  response="000000000000" foes="000000000000" cont="0"/>
        <request index="9"  response="000000000000" foes="000001111100" cont="0"/>
        <request index="10" response="000000000000" foes="000001111100" cont="0"/>
        <request index="11" response="000001000011" foes="000001000011" cont="1"/>
    </junction>
    <junction id="A2" type="priority" x="0.00" y="600.00" incLanes="B2A2_0 B2A2_1 A1A2_0 A1A2_1" intLanes=":A2_0_0 :A2_0_1 :A2_2_0 :A2_2_1" shape="6.40,606.40 6.40,593.60 -6.40,593.60 -6.04,597.51 -4.98,600.71 -3.20,603.20 -0.71,604.98 2.49,606.04">
        <request index="0" response="0000" foes="0000" cont="0"/>
        <request index="1" response="0000" foes="0000" cont="0"/>
        <request index="2" response="0000" foes="0000" cont="0"/>
        <request index="3" response="0000" foes="0000" cont="0"/>
    </junction>
    <junction id="B0" type="traffic_light" x="300.00" y="0.00" incLanes="B1B0_0 B1B0_1 C0B0_0 C0B0_1 A0B0_0 A0B0_1" intLanes=":B0_0_0 :B0_0_1 :B0_2_0 :B0_12_0 :B0_4_0 :B0_5_0 :B0_5_1 :B0_13_0 :B0_8_0 :B0_8_1 :B0_14_0 :B0_15_0" shape="293.60,10.40 306.40,10.40 306.84,8.18 307.40,7.40 308.18,6.84 309.18,6.51 310.40,6.40 310.40,-6.40 289.60,-6.40 289.60,6.40 291.82,6.84 292.60,7.40 293.16,8.18 293.49,9.18">
        <request index="0"  response="000001100000" foes="100001100000" cont="0"/>
        <request index="1"  response="000001100000" foes="100001100000" cont="0"/>
        <request index="2"  response="011101100000" foes="011111100000" cont="0"/>
        <request index="3"  response="010000000000" foes="010000000000" cont="1"/>
        <request index="4"  response="000000000000" foes="000000000000" cont="0"/>